-- Eclipse data file
RUNSPEC  ==================================================
TITLE
Two Phase Black Oil

DIMENS
   1720    23   1  /

OIL

Gas

DISGAS

FIELD

FMTIN

FMTOUT


START
1 DEC 2015  /

WELLDIMS
    1   200    1    10  /

WSEGDIMS
 1 500 1 1 /

CART

FULLIMP

-- TODO
TABDIMS
    1 1 /

-- linear solver stack size
NSTACK
   25 /

GRID     =======================================================

DXV
4.1581
3.4817
2.9154
2.4412
2.0442
1.7117
1.4333
1.2002
1.005
0.8415
0.7047
0.5901
0.4941
0.4137
0.3464
0.2901
0.2429
0.2034
0.1703
0.1426
0.1194
0.1
0.1194
0.1426
0.1703
0.2034
0.2429
0.2901
0.3464
0.4137
0.4941
0.5901
0.7047
0.8415
1.005
1.2002
1.4333
1.7117
2.0442
2.4412
2.9154
3.4817
4.1581
4.1581
3.4817
2.9154
2.4412
2.0442
1.7117
1.4333
1.2002
1.005
0.8415
0.7047
0.5901
0.4941
0.4137
0.3464
0.2901
0.2429
0.2034
0.1703
0.1426
0.1194
0.1
0.1194
0.1426
0.1703
0.2034
0.2429
0.2901
0.3464
0.4137
0.4941
0.5901
0.7047
0.8415
1.005
1.2002
1.4333
1.7117
2.0442
2.4412
2.9154
3.4817
4.1581
4.1581
3.4817
2.9154
2.4412
2.0442
1.7117
1.4333
1.2002
1.005
0.8415
0.7047
0.5901
0.4941
0.4137
0.3464
0.2901
0.2429
0.2034
0.1703
0.1426
0.1194
0.1
0.1194
0.1426
0.1703
0.2034
0.2429
0.2901
0.3464
0.4137
0.4941
0.5901
0.7047
0.8415
1.005
1.2002
1.4333
1.7117
2.0442
2.4412
2.9154
3.4817
4.1581
4.1581
3.4817
2.9154
2.4412
2.0442
1.7117
1.4333
1.2002
1.005
0.8415
0.7047
0.5901
0.4941
0.4137
0.3464
0.2901
0.2429
0.2034
0.1703
0.1426
0.1194
0.1
0.1194
0.1426
0.1703
0.2034
0.2429
0.2901
0.3464
0.4137
0.4941
0.5901
0.7047
0.8415
1.005
1.2002
1.4333
1.7117
2.0442
2.4412
2.9154
3.4817
4.1581
4.1581
3.4817
2.9154
2.4412
2.0442
1.7117
1.4333
1.2002
1.005
0.8415
0.7047
0.5901
0.4941
0.4137
0.3464
0.2901
0.2429
0.2034
0.1703
0.1426
0.1194
0.1
0.1194
0.1426
0.1703
0.2034
0.2429
0.2901
0.3464
0.4137
0.4941
0.5901
0.7047
0.8415
1.005
1.2002
1.4333
1.7117
2.0442
2.4412
2.9154
3.4817
4.1581
4.1581
3.4817
2.9154
2.4412
2.0442
1.7117
1.4333
1.2002
1.005
0.8415
0.7047
0.5901
0.4941
0.4137
0.3464
0.2901
0.2429
0.2034
0.1703
0.1426
0.1194
0.1
0.1194
0.1426
0.1703
0.2034
0.2429
0.2901
0.3464
0.4137
0.4941
0.5901
0.7047
0.8415
1.005
1.2002
1.4333
1.7117
2.0442
2.4412
2.9154
3.4817
4.1581
4.1581
3.4817
2.9154
2.4412
2.0442
1.7117
1.4333
1.2002
1.005
0.8415
0.7047
0.5901
0.4941
0.4137
0.3464
0.2901
0.2429
0.2034
0.1703
0.1426
0.1194
0.1
0.1194
0.1426
0.1703
0.2034
0.2429
0.2901
0.3464
0.4137
0.4941
0.5901
0.7047
0.8415
1.005
1.2002
1.4333
1.7117
2.0442
2.4412
2.9154
3.4817
4.1581
4.1581
3.4817
2.9154
2.4412
2.0442
1.7117
1.4333
1.2002
1.005
0.8415
0.7047
0.5901
0.4941
0.4137
0.3464
0.2901
0.2429
0.2034
0.1703
0.1426
0.1194
0.1
0.1194
0.1426
0.1703
0.2034
0.2429
0.2901
0.3464
0.4137
0.4941
0.5901
0.7047
0.8415
1.005
1.2002
1.4333
1.7117
2.0442
2.4412
2.9154
3.4817
4.1581
4.1581
3.4817
2.9154
2.4412
2.0442
1.7117
1.4333
1.2002
1.005
0.8415
0.7047
0.5901
0.4941
0.4137
0.3464
0.2901
0.2429
0.2034
0.1703
0.1426
0.1194
0.1
0.1194
0.1426
0.1703
0.2034
0.2429
0.2901
0.3464
0.4137
0.4941
0.5901
0.7047
0.8415
1.005
1.2002
1.4333
1.7117
2.0442
2.4412
2.9154
3.4817
4.1581
4.1581
3.4817
2.9154
2.4412
2.0442
1.7117
1.4333
1.2002
1.005
0.8415
0.7047
0.5901
0.4941
0.4137
0.3464
0.2901
0.2429
0.2034
0.1703
0.1426
0.1194
0.1
0.1194
0.1426
0.1703
0.2034
0.2429
0.2901
0.3464
0.4137
0.4941
0.5901
0.7047
0.8415
1.005
1.2002
1.4333
1.7117
2.0442
2.4412
2.9154
3.4817
4.1581
4.1581
3.4817
2.9154
2.4412
2.0442
1.7117
1.4333
1.2002
1.005
0.8415
0.7047
0.5901
0.4941
0.4137
0.3464
0.2901
0.2429
0.2034
0.1703
0.1426
0.1194
0.1
0.1194
0.1426
0.1703
0.2034
0.2429
0.2901
0.3464
0.4137
0.4941
0.5901
0.7047
0.8415
1.005
1.2002
1.4333
1.7117
2.0442
2.4412
2.9154
3.4817
4.1581
4.1581
3.4817
2.9154
2.4412
2.0442
1.7117
1.4333
1.2002
1.005
0.8415
0.7047
0.5901
0.4941
0.4137
0.3464
0.2901
0.2429
0.2034
0.1703
0.1426
0.1194
0.1
0.1194
0.1426
0.1703
0.2034
0.2429
0.2901
0.3464
0.4137
0.4941
0.5901
0.7047
0.8415
1.005
1.2002
1.4333
1.7117
2.0442
2.4412
2.9154
3.4817
4.1581
4.1581
3.4817
2.9154
2.4412
2.0442
1.7117
1.4333
1.2002
1.005
0.8415
0.7047
0.5901
0.4941
0.4137
0.3464
0.2901
0.2429
0.2034
0.1703
0.1426
0.1194
0.1
0.1194
0.1426
0.1703
0.2034
0.2429
0.2901
0.3464
0.4137
0.4941
0.5901
0.7047
0.8415
1.005
1.2002
1.4333
1.7117
2.0442
2.4412
2.9154
3.4817
4.1581
4.1581
3.4817
2.9154
2.4412
2.0442
1.7117
1.4333
1.2002
1.005
0.8415
0.7047
0.5901
0.4941
0.4137
0.3464
0.2901
0.2429
0.2034
0.1703
0.1426
0.1194
0.1
0.1194
0.1426
0.1703
0.2034
0.2429
0.2901
0.3464
0.4137
0.4941
0.5901
0.7047
0.8415
1.005
1.2002
1.4333
1.7117
2.0442
2.4412
2.9154
3.4817
4.1581
4.1581
3.4817
2.9154
2.4412
2.0442
1.7117
1.4333
1.2002
1.005
0.8415
0.7047
0.5901
0.4941
0.4137
0.3464
0.2901
0.2429
0.2034
0.1703
0.1426
0.1194
0.1
0.1194
0.1426
0.1703
0.2034
0.2429
0.2901
0.3464
0.4137
0.4941
0.5901
0.7047
0.8415
1.005
1.2002
1.4333
1.7117
2.0442
2.4412
2.9154
3.4817
4.1581
4.1581
3.4817
2.9154
2.4412
2.0442
1.7117
1.4333
1.2002
1.005
0.8415
0.7047
0.5901
0.4941
0.4137
0.3464
0.2901
0.2429
0.2034
0.1703
0.1426
0.1194
0.1
0.1194
0.1426
0.1703
0.2034
0.2429
0.2901
0.3464
0.4137
0.4941
0.5901
0.7047
0.8415
1.005
1.2002
1.4333
1.7117
2.0442
2.4412
2.9154
3.4817
4.1581
4.1581
3.4817
2.9154
2.4412
2.0442
1.7117
1.4333
1.2002
1.005
0.8415
0.7047
0.5901
0.4941
0.4137
0.3464
0.2901
0.2429
0.2034
0.1703
0.1426
0.1194
0.1
0.1194
0.1426
0.1703
0.2034
0.2429
0.2901
0.3464
0.4137
0.4941
0.5901
0.7047
0.8415
1.005
1.2002
1.4333
1.7117
2.0442
2.4412
2.9154
3.4817
4.1581
4.1581
3.4817
2.9154
2.4412
2.0442
1.7117
1.4333
1.2002
1.005
0.8415
0.7047
0.5901
0.4941
0.4137
0.3464
0.2901
0.2429
0.2034
0.1703
0.1426
0.1194
0.1
0.1194
0.1426
0.1703
0.2034
0.2429
0.2901
0.3464
0.4137
0.4941
0.5901
0.7047
0.8415
1.005
1.2002
1.4333
1.7117
2.0442
2.4412
2.9154
3.4817
4.1581
4.1581
3.4817
2.9154
2.4412
2.0442
1.7117
1.4333
1.2002
1.005
0.8415
0.7047
0.5901
0.4941
0.4137
0.3464
0.2901
0.2429
0.2034
0.1703
0.1426
0.1194
0.1
0.1194
0.1426
0.1703
0.2034
0.2429
0.2901
0.3464
0.4137
0.4941
0.5901
0.7047
0.8415
1.005
1.2002
1.4333
1.7117
2.0442
2.4412
2.9154
3.4817
4.1581
4.1581
3.4817
2.9154
2.4412
2.0442
1.7117
1.4333
1.2002
1.005
0.8415
0.7047
0.5901
0.4941
0.4137
0.3464
0.2901
0.2429
0.2034
0.1703
0.1426
0.1194
0.1
0.1194
0.1426
0.1703
0.2034
0.2429
0.2901
0.3464
0.4137
0.4941
0.5901
0.7047
0.8415
1.005
1.2002
1.4333
1.7117
2.0442
2.4412
2.9154
3.4817
4.1581
4.1581
3.4817
2.9154
2.4412
2.0442
1.7117
1.4333
1.2002
1.005
0.8415
0.7047
0.5901
0.4941
0.4137
0.3464
0.2901
0.2429
0.2034
0.1703
0.1426
0.1194
0.1
0.1194
0.1426
0.1703
0.2034
0.2429
0.2901
0.3464
0.4137
0.4941
0.5901
0.7047
0.8415
1.005
1.2002
1.4333
1.7117
2.0442
2.4412
2.9154
3.4817
4.1581
4.1581
3.4817
2.9154
2.4412
2.0442
1.7117
1.4333
1.2002
1.005
0.8415
0.7047
0.5901
0.4941
0.4137
0.3464
0.2901
0.2429
0.2034
0.1703
0.1426
0.1194
0.1
0.1194
0.1426
0.1703
0.2034
0.2429
0.2901
0.3464
0.4137
0.4941
0.5901
0.7047
0.8415
1.005
1.2002
1.4333
1.7117
2.0442
2.4412
2.9154
3.4817
4.1581
4.1581
3.4817
2.9154
2.4412
2.0442
1.7117
1.4333
1.2002
1.005
0.8415
0.7047
0.5901
0.4941
0.4137
0.3464
0.2901
0.2429
0.2034
0.1703
0.1426
0.1194
0.1
0.1194
0.1426
0.1703
0.2034
0.2429
0.2901
0.3464
0.4137
0.4941
0.5901
0.7047
0.8415
1.005
1.2002
1.4333
1.7117
2.0442
2.4412
2.9154
3.4817
4.1581
4.1581
3.4817
2.9154
2.4412
2.0442
1.7117
1.4333
1.2002
1.005
0.8415
0.7047
0.5901
0.4941
0.4137
0.3464
0.2901
0.2429
0.2034
0.1703
0.1426
0.1194
0.1
0.1194
0.1426
0.1703
0.2034
0.2429
0.2901
0.3464
0.4137
0.4941
0.5901
0.7047
0.8415
1.005
1.2002
1.4333
1.7117
2.0442
2.4412
2.9154
3.4817
4.1581
4.1581
3.4817
2.9154
2.4412
2.0442
1.7117
1.4333
1.2002
1.005
0.8415
0.7047
0.5901
0.4941
0.4137
0.3464
0.2901
0.2429
0.2034
0.1703
0.1426
0.1194
0.1
0.1194
0.1426
0.1703
0.2034
0.2429
0.2901
0.3464
0.4137
0.4941
0.5901
0.7047
0.8415
1.005
1.2002
1.4333
1.7117
2.0442
2.4412
2.9154
3.4817
4.1581
4.1581
3.4817
2.9154
2.4412
2.0442
1.7117
1.4333
1.2002
1.005
0.8415
0.7047
0.5901
0.4941
0.4137
0.3464
0.2901
0.2429
0.2034
0.1703
0.1426
0.1194
0.1
0.1194
0.1426
0.1703
0.2034
0.2429
0.2901
0.3464
0.4137
0.4941
0.5901
0.7047
0.8415
1.005
1.2002
1.4333
1.7117
2.0442
2.4412
2.9154
3.4817
4.1581
4.1581
3.4817
2.9154
2.4412
2.0442
1.7117
1.4333
1.2002
1.005
0.8415
0.7047
0.5901
0.4941
0.4137
0.3464
0.2901
0.2429
0.2034
0.1703
0.1426
0.1194
0.1
0.1194
0.1426
0.1703
0.2034
0.2429
0.2901
0.3464
0.4137
0.4941
0.5901
0.7047
0.8415
1.005
1.2002
1.4333
1.7117
2.0442
2.4412
2.9154
3.4817
4.1581
4.1581
3.4817
2.9154
2.4412
2.0442
1.7117
1.4333
1.2002
1.005
0.8415
0.7047
0.5901
0.4941
0.4137
0.3464
0.2901
0.2429
0.2034
0.1703
0.1426
0.1194
0.1
0.1194
0.1426
0.1703
0.2034
0.2429
0.2901
0.3464
0.4137
0.4941
0.5901
0.7047
0.8415
1.005
1.2002
1.4333
1.7117
2.0442
2.4412
2.9154
3.4817
4.1581
4.1581
3.4817
2.9154
2.4412
2.0442
1.7117
1.4333
1.2002
1.005
0.8415
0.7047
0.5901
0.4941
0.4137
0.3464
0.2901
0.2429
0.2034
0.1703
0.1426
0.1194
0.1
0.1194
0.1426
0.1703
0.2034
0.2429
0.2901
0.3464
0.4137
0.4941
0.5901
0.7047
0.8415
1.005
1.2002
1.4333
1.7117
2.0442
2.4412
2.9154
3.4817
4.1581
4.1581
3.4817
2.9154
2.4412
2.0442
1.7117
1.4333
1.2002
1.005
0.8415
0.7047
0.5901
0.4941
0.4137
0.3464
0.2901
0.2429
0.2034
0.1703
0.1426
0.1194
0.1
0.1194
0.1426
0.1703
0.2034
0.2429
0.2901
0.3464
0.4137
0.4941
0.5901
0.7047
0.8415
1.005
1.2002
1.4333
1.7117
2.0442
2.4412
2.9154
3.4817
4.1581
4.1581
3.4817
2.9154
2.4412
2.0442
1.7117
1.4333
1.2002
1.005
0.8415
0.7047
0.5901
0.4941
0.4137
0.3464
0.2901
0.2429
0.2034
0.1703
0.1426
0.1194
0.1
0.1194
0.1426
0.1703
0.2034
0.2429
0.2901
0.3464
0.4137
0.4941
0.5901
0.7047
0.8415
1.005
1.2002
1.4333
1.7117
2.0442
2.4412
2.9154
3.4817
4.1581
4.1581
3.4817
2.9154
2.4412
2.0442
1.7117
1.4333
1.2002
1.005
0.8415
0.7047
0.5901
0.4941
0.4137
0.3464
0.2901
0.2429
0.2034
0.1703
0.1426
0.1194
0.1
0.1194
0.1426
0.1703
0.2034
0.2429
0.2901
0.3464
0.4137
0.4941
0.5901
0.7047
0.8415
1.005
1.2002
1.4333
1.7117
2.0442
2.4412
2.9154
3.4817
4.1581
4.1581
3.4817
2.9154
2.4412
2.0442
1.7117
1.4333
1.2002
1.005
0.8415
0.7047
0.5901
0.4941
0.4137
0.3464
0.2901
0.2429
0.2034
0.1703
0.1426
0.1194
0.1
0.1194
0.1426
0.1703
0.2034
0.2429
0.2901
0.3464
0.4137
0.4941
0.5901
0.7047
0.8415
1.005
1.2002
1.4333
1.7117
2.0442
2.4412
2.9154
3.4817
4.1581
4.1581
3.4817
2.9154
2.4412
2.0442
1.7117
1.4333
1.2002
1.005
0.8415
0.7047
0.5901
0.4941
0.4137
0.3464
0.2901
0.2429
0.2034
0.1703
0.1426
0.1194
0.1
0.1194
0.1426
0.1703
0.2034
0.2429
0.2901
0.3464
0.4137
0.4941
0.5901
0.7047
0.8415
1.005
1.2002
1.4333
1.7117
2.0442
2.4412
2.9154
3.4817
4.1581
4.1581
3.4817
2.9154
2.4412
2.0442
1.7117
1.4333
1.2002
1.005
0.8415
0.7047
0.5901
0.4941
0.4137
0.3464
0.2901
0.2429
0.2034
0.1703
0.1426
0.1194
0.1
0.1194
0.1426
0.1703
0.2034
0.2429
0.2901
0.3464
0.4137
0.4941
0.5901
0.7047
0.8415
1.005
1.2002
1.4333
1.7117
2.0442
2.4412
2.9154
3.4817
4.1581
4.1581
3.4817
2.9154
2.4412
2.0442
1.7117
1.4333
1.2002
1.005
0.8415
0.7047
0.5901
0.4941
0.4137
0.3464
0.2901
0.2429
0.2034
0.1703
0.1426
0.1194
0.1
0.1194
0.1426
0.1703
0.2034
0.2429
0.2901
0.3464
0.4137
0.4941
0.5901
0.7047
0.8415
1.005
1.2002
1.4333
1.7117
2.0442
2.4412
2.9154
3.4817
4.1581
4.1581
3.4817
2.9154
2.4412
2.0442
1.7117
1.4333
1.2002
1.005
0.8415
0.7047
0.5901
0.4941
0.4137
0.3464
0.2901
0.2429
0.2034
0.1703
0.1426
0.1194
0.1
0.1194
0.1426
0.1703
0.2034
0.2429
0.2901
0.3464
0.4137
0.4941
0.5901
0.7047
0.8415
1.005
1.2002
1.4333
1.7117
2.0442
2.4412
2.9154
3.4817
4.1581
4.1581
3.4817
2.9154
2.4412
2.0442
1.7117
1.4333
1.2002
1.005
0.8415
0.7047
0.5901
0.4941
0.4137
0.3464
0.2901
0.2429
0.2034
0.1703
0.1426
0.1194
0.1
0.1194
0.1426
0.1703
0.2034
0.2429
0.2901
0.3464
0.4137
0.4941
0.5901
0.7047
0.8415
1.005
1.2002
1.4333
1.7117
2.0442
2.4412
2.9154
3.4817
4.1581
4.1581
3.4817
2.9154
2.4412
2.0442
1.7117
1.4333
1.2002
1.005
0.8415
0.7047
0.5901
0.4941
0.4137
0.3464
0.2901
0.2429
0.2034
0.1703
0.1426
0.1194
0.1
0.1194
0.1426
0.1703
0.2034
0.2429
0.2901
0.3464
0.4137
0.4941
0.5901
0.7047
0.8415
1.005
1.2002
1.4333
1.7117
2.0442
2.4412
2.9154
3.4817
4.1581
4.1581
3.4817
2.9154
2.4412
2.0442
1.7117
1.4333
1.2002
1.005
0.8415
0.7047
0.5901
0.4941
0.4137
0.3464
0.2901
0.2429
0.2034
0.1703
0.1426
0.1194
0.1
0.1194
0.1426
0.1703
0.2034
0.2429
0.2901
0.3464
0.4137
0.4941
0.5901
0.7047
0.8415
1.005
1.2002
1.4333
1.7117
2.0442
2.4412
2.9154
3.4817
4.1581
/

DYV
1
1.1339
1.3482
1.603
1.9059
2.2662
2.6943
3.2036
3.809
4.5289
5.3847
6.4024
7.6123
9.051
10.7614
12.7952
25
25
25
25
25
50
50
/

-- total thickness 200 ft
DZ
  39560*200 /
--DZV
--    25 25 25 25	25 25 25 25/



-- depth to top of cells on upper plane (center TOPS+0.5DZ)
-- NX * NY = 1720* 23= 39560
TOPS
   39560*10400.0 /

-- this part should be included in ONEINJONEPROD_1_GPRO.INC program
EQUALS
PORO   0.03 1 1720 1 23 1 1 /

PORO   1    22 22 1 19 1 1 /
PORO   1    65 65 1 19 1 1 /
PORO   1    108 108 1 19 1 1 /
PORO   1    151 151 1 19 1 1 /
PORO   1    194 194 1 19 1 1 /
PORO   1    237 237 1 19 1 1 /
PORO   1    280 280 1 19 1 1 /
PORO   1    323 323 1 19 1 1 /
PORO   1    366 366 1 19 1 1 /
PORO   1    409 409 1 19 1 1 /
PORO   1    452 452 1 19 1 1 /
PORO   1    495 495 1 19 1 1 /
PORO   1    538 538 1 19 1 1 /
PORO   1    581 581 1 19 1 1 /
PORO   1    624 624 1 19 1 1 /
PORO   1    667 667 1 19 1 1 /
PORO   1    710 710 1 19 1 1 /
PORO   1    753 753 1 19 1 1 /
PORO   1    796 796 1 19 1 1 /
PORO   1    839 839 1 19 1 1 /
PORO   1    882 882 1 19 1 1 /
PORO   1    925 925 1 19 1 1 /
PORO   1    968 968 1 19 1 1 /
PORO   1    1011 1011 1 19 1 1 /
PORO   1    1054 1054 1 19 1 1 /
PORO   1    1097 1097 1 19 1 1 /
PORO   1    1140 1140 1 19 1 1 /
PORO   1    1183 1183 1 19 1 1 /
PORO   1    1226 1226 1 19 1 1 /
PORO   1    1269 1269 1 19 1 1 /
PORO   1    1312 1312 1 19 1 1 /
PORO   1    1355 1355 1 19 1 1 /
PORO   1    1398 1398 1 19 1 1 /
PORO   1    1441 1441 1 19 1 1 /
PORO   1    1484 1484 1 19 1 1 /
PORO   1    1527 1527 1 19 1 1 /
PORO   1    1570 1570 1 19 1 1 /
PORO   1    1613 1613 1 19 1 1 /
PORO   1    1656 1656 1 19 1 1 /
PORO   1    1699 1699 1 19 1 1 /

PERMX   0.0001 1 1720 1 23 1 1 /

PERMX   1000    22 22 1 19 1 1 /
PERMX   1000    65 65 1 19 1 1 /
PERMX   1000    108 108 1 19 1 1 /
PERMX   1000    151 151 1 19 1 1 /
PERMX   1000    194 194 1 19 1 1 /
PERMX   1000    237 237 1 19 1 1 /
PERMX   1000    280 280 1 19 1 1 /
PERMX   1000    323 323 1 19 1 1 /
PERMX   1000    366 366 1 19 1 1 /
PERMX   1000    409 409 1 19 1 1 /
PERMX   1000    452 452 1 19 1 1 /
PERMX   1000    495 495 1 19 1 1 /
PERMX   1000    538 538 1 19 1 1 /
PERMX   1000    581 581 1 19 1 1 /
PERMX   1000    624 624 1 19 1 1 /
PERMX   1000    667 667 1 19 1 1 /
PERMX   1000    710 710 1 19 1 1 /
PERMX   1000    753 753 1 19 1 1 /
PERMX   1000    796 796 1 19 1 1 /
PERMX   1000    839 839 1 19 1 1 /
PERMX   1000    882 882 1 19 1 1 /
PERMX   1000    925 925 1 19 1 1 /
PERMX   1000    968 968 1 19 1 1 /
PERMX   1000    1011 1011 1 19 1 1 /
PERMX   1000    1054 1054 1 19 1 1 /
PERMX   1000    1097 1097 1 19 1 1 /
PERMX   1000    1140 1140 1 19 1 1 /
PERMX   1000    1183 1183 1 19 1 1 /
PERMX   1000    1226 1226 1 19 1 1 /
PERMX   1000    1269 1269 1 19 1 1 /
PERMX   1000    1312 1312 1 19 1 1 /
PERMX   1000    1355 1355 1 19 1 1 /
PERMX   1000    1398 1398 1 19 1 1 /
PERMX   1000    1441 1441 1 19 1 1 /
PERMX   1000    1484 1484 1 19 1 1 /
PERMX   1000    1527 1527 1 19 1 1 /
PERMX   1000    1570 1570 1 19 1 1 /
PERMX   1000    1613 1613 1 19 1 1 /
PERMX   1000    1656 1656 1 19 1 1 /
PERMX   1000    1699 1699 1 19 1 1 /
/


COPY
PERMX PERMY/
PERMY PERMZ/
/



OLDTRANR

-- writes initial grid info to file for GRAF
INIT

-- Report Levels for Grid Section Data
-- RPTGRID
-- 'DX' 
-- 'DY' 
-- 'DZ' 
-- 'PERMX' 
-- 'PERMY' 
-- / 








PROPS    =======================================================
--Gas RELATIVE PERMEABILITY AND CAPILLARY PRESSURE ARE TABULATED AS
-- A FUNCTION OFGas SATURATION.
-----------------
-- SIMILARLY FOR GAS
--
--  SGAS   KRG   PCOG
SGFN	
	
0	0	0
0.1	0.0125	0
0.2	0.05	0
0.3	0.1125	0
0.4	0.2	0
0.5	0.3125	0
0.6	0.45	0
0.7	0.6125	0
0.8	0.8	0
/

----------------
-- OIL RELATIVE PERMEABILITY IS TABULATED AGAINST OIL SATURATION
-- FOR OIL-WATER AND OIL-GAS-CONNATE WATER CASES
--
--  SOIL   KROG
SOF2	

0.2	0
0.3	0.0109375
0.4	0.04375
0.5	0.0984375
0.6	0.175
0.7	0.2734375
0.8	0.39375
0.9	0.5359375
1	0.7
/

------------------- PVT -----------------------
-- ROCK COMPRESSIBILITY
--
--    REF. PRES   COMPRESSIBILITY
ROCK
        14.7          3.0D-6          /

---------------------
-- SURFACE DENSITIES OF RESERVOIR FLUIDS
--
--        OIL  WATER    GAS
DENSITY
         49.1  63.0200  0.06054  /

----------------------
-- PVT PROPERTIES OF DRY GAS (NO VAPOURISED OIL)
-- WE WOULD USE PVTG TO SPECIFY THE PROPERTIES OF WET GAS
--
--   PGAS   BGAS   VISGAS
PVDG
     14.7 166.666   0.008
    264.7  12.093   0.0096
    514.7   6.274   0.0112
   1014.7   3.197   0.014
   2014.7   1.614   0.0189
   2514.7   1.294   0.0208
   3014.7   1.080   0.0228
   4014.7   0.811   0.0268
   5014.7   0.649   0.0309
   9014.7   0.386   0.047   /

-- PVT PROPERTIES OF LIVE OIL (WITH DISSOLVED GAS)
-- WE WOULD USE PVDO TO SPECIFY THE PROPERTIES OF DEAD OIL
--
-- FOR EACH VALUE OF RS THE SATURATION PRESSURE, FVF AND VISCOSITY
-- ARE SPECIFIED. FOR RS=1.27 AND 1.618, THE FVF AND VISCOSITY OF
-- UNDERSATURATED OIL ARE DEFINED AS A FUNCTION OF PRESSURE. DATA
-- FOR UNDERSATURATED OIL MAY BE SUPPLIED FOR ANY RS, BUT MUST BE
-- SUPPLIED FOR THE HIGHEST RS (1.618).
--
--   RS      POIL  FVFO  VISO
PVTO
    0.001    14.7 1.062  1.04    /
0.14	800	1.2	1.09	/
0.18	1000	1.225	1.01	/
0.22	1200	1.24	0.96	/
0.26	1400	1.28	0.9	/
0.3	1600	1.285	0.85	/
0.35	1800	1.31	0.77	/
0.4	2000	1.335	0.74	/
0.45	2200	1.36	0.70	/
0.5	2400	1.385	0.66	/
0.55	2600	1.41	0.62	/
0.6	2800	1.43	0.58	/
0.65	3000	1.46	0.54	/
0.71	3200	1.485	0.51	/
0.84	3600	1.55	0.45	/
0.98	4000	1.62	0.40	
	4400	1.608571429	0.43	
	4800	1.597142857	0.46	
	5200	1.585714286	0.49
	5600	1.574285714	0.51
	6000	1.562857143	0.54
	6400	1.551428571	0.57
	6800	1.54	0.60	/

/

-- OUTPUT CONTROLS FOR PROPS DATA
-- ACTIVATED FOR SOF3, SWFN, SGFN, PVTW, PVDG, DENSITY AND ROCK KEYWORDS
RPTPROPS
-- PROPS Reporting Options
-- 
'PVTG' 'PVDG' 'DENSITY' 'GRAVITY' 'SDENSITY' 'ROCK' 'ROCKTAB' 
/






SOLUTION   =====================================================
-------- THE SOLUTION SECTION DEFINES THE INITIAL STATE OF THE SOLUTION
-------- VARIABLES (PHASE PRESSURES, SATURATIONS AND GAS-OIL RATIOS)
------------------------------------------------------------------------
-- DATA FOR INITIALISING FLUIDS TO POTENTIAL EQUILIBRIUM
--
--    DATUM  DATUM   OWC    OWC    GOC    GOC    RSVD   RVVD   SOLN
--    DEPTH  PRESS  DEPTH   PCOW  DEPTH   PCOG  TABLE  TABLE   METH

EQUIL
       10500   6000   10800    0    10200    0      1      0       0  /

-- VARIATION OF INITIAL RS WITH DEPTH
--
--    DEPTH    RS

RSVD
       10300  0.98
       10700  0.98  /

-- OUTPUT OF INITIAL
-- PRESS SWAT SGAS

RPTSOL
  -- Initialisation Print Output
  -- 
'PRES' 'SWAT' 'SGAS' /










SUMMARY    =====================================================
FGOR
FGPR
FGPT
FOPR
FOPT
WOPR
 /
WOPT
 /




SCHEDULE   =====================================================

WELSPECS  
'PROD'   'WGRP'    1  1   10500.0    'OIL'      /    
/

-----------------------
-- 1      2  3  4  5    6     7   8   9  10  11 12  13   14

COMPDAT
'PROD' 17 1  1 1 'OPEN' 2* 0.4 3* 'X' 1* /
/
COMPDAT
'PROD' 18 1  1 1 'OPEN' 2* 0.4 3* 'X' 1* /
/
COMPDAT
'PROD' 19 1  1 1 'OPEN' 2* 0.4 3* 'X' 1* /
/
COMPDAT
'PROD' 20 1  1 1 'OPEN' 2* 0.4 3* 'X' 1* /
/
COMPDAT
'PROD' 21 1  1 1 'OPEN' 2* 0.4 3* 'X' 1* /
/
COMPDAT
'PROD' 22 1  1 1 'OPEN' 2* 0.4 3* 'X' 1* /
/
COMPDAT
'PROD' 23 1  1 1 'OPEN' 2* 0.4 3* 'X' 1* /
/
COMPDAT
'PROD' 24 1  1 1 'OPEN' 2* 0.4 3* 'X' 1* /
/
COMPDAT
'PROD' 25 1  1 1 'OPEN' 2* 0.4 3* 'X' 1* /
/
COMPDAT
'PROD' 26 1  1 1 'OPEN' 2* 0.4 3* 'X' 1* /
/
COMPDAT
'PROD' 27 1  1 1 'OPEN' 2* 0.4 3* 'X' 1* /
/
COMPDAT
'PROD' 60 1  1 1 'OPEN' 2* 0.4 3* 'X' 1* /
/
COMPDAT
'PROD' 61 1  1 1 'OPEN' 2* 0.4 3* 'X' 1* /
/
COMPDAT
'PROD' 62 1  1 1 'OPEN' 2* 0.4 3* 'X' 1* /
/
COMPDAT
'PROD' 63 1  1 1 'OPEN' 2* 0.4 3* 'X' 1* /
/
COMPDAT
'PROD' 64 1  1 1 'OPEN' 2* 0.4 3* 'X' 1* /
/
COMPDAT
'PROD' 65 1  1 1 'OPEN' 2* 0.4 3* 'X' 1* /
/
COMPDAT
'PROD' 66 1  1 1 'OPEN' 2* 0.4 3* 'X' 1* /
/
COMPDAT
'PROD' 67 1  1 1 'OPEN' 2* 0.4 3* 'X' 1* /
/
COMPDAT
'PROD' 68 1  1 1 'OPEN' 2* 0.4 3* 'X' 1* /
/
COMPDAT
'PROD' 69 1  1 1 'OPEN' 2* 0.4 3* 'X' 1* /
/
COMPDAT
'PROD' 70 1  1 1 'OPEN' 2* 0.4 3* 'X' 1* /
/
COMPDAT
'PROD' 103 1  1 1 'OPEN' 2* 0.4 3* 'X' 1* /
/
COMPDAT
'PROD' 104 1  1 1 'OPEN' 2* 0.4 3* 'X' 1* /
/
COMPDAT
'PROD' 105 1  1 1 'OPEN' 2* 0.4 3* 'X' 1* /
/
COMPDAT
'PROD' 106 1  1 1 'OPEN' 2* 0.4 3* 'X' 1* /
/
COMPDAT
'PROD' 107 1  1 1 'OPEN' 2* 0.4 3* 'X' 1* /
/
COMPDAT
'PROD' 108 1  1 1 'OPEN' 2* 0.4 3* 'X' 1* /
/
COMPDAT
'PROD' 109 1  1 1 'OPEN' 2* 0.4 3* 'X' 1* /
/
COMPDAT
'PROD' 110 1  1 1 'OPEN' 2* 0.4 3* 'X' 1* /
/
COMPDAT
'PROD' 111 1  1 1 'OPEN' 2* 0.4 3* 'X' 1* /
/
COMPDAT
'PROD' 112 1  1 1 'OPEN' 2* 0.4 3* 'X' 1* /
/
COMPDAT
'PROD' 113 1  1 1 'OPEN' 2* 0.4 3* 'X' 1* /
/
COMPDAT
'PROD' 146 1  1 1 'OPEN' 2* 0.4 3* 'X' 1* /
/
COMPDAT
'PROD' 147 1  1 1 'OPEN' 2* 0.4 3* 'X' 1* /
/
COMPDAT
'PROD' 148 1  1 1 'OPEN' 2* 0.4 3* 'X' 1* /
/
COMPDAT
'PROD' 149 1  1 1 'OPEN' 2* 0.4 3* 'X' 1* /
/
COMPDAT
'PROD' 150 1  1 1 'OPEN' 2* 0.4 3* 'X' 1* /
/
COMPDAT
'PROD' 151 1  1 1 'OPEN' 2* 0.4 3* 'X' 1* /
/
COMPDAT
'PROD' 152 1  1 1 'OPEN' 2* 0.4 3* 'X' 1* /
/
COMPDAT
'PROD' 153 1  1 1 'OPEN' 2* 0.4 3* 'X' 1* /
/
COMPDAT
'PROD' 154 1  1 1 'OPEN' 2* 0.4 3* 'X' 1* /
/
COMPDAT
'PROD' 155 1  1 1 'OPEN' 2* 0.4 3* 'X' 1* /
/
COMPDAT
'PROD' 156 1  1 1 'OPEN' 2* 0.4 3* 'X' 1* /
/
COMPDAT
'PROD' 189 1  1 1 'OPEN' 2* 0.4 3* 'X' 1* /
/
COMPDAT
'PROD' 190 1  1 1 'OPEN' 2* 0.4 3* 'X' 1* /
/
COMPDAT
'PROD' 191 1  1 1 'OPEN' 2* 0.4 3* 'X' 1* /
/
COMPDAT
'PROD' 192 1  1 1 'OPEN' 2* 0.4 3* 'X' 1* /
/
COMPDAT
'PROD' 193 1  1 1 'OPEN' 2* 0.4 3* 'X' 1* /
/
COMPDAT
'PROD' 194 1  1 1 'OPEN' 2* 0.4 3* 'X' 1* /
/
COMPDAT
'PROD' 195 1  1 1 'OPEN' 2* 0.4 3* 'X' 1* /
/
COMPDAT
'PROD' 196 1  1 1 'OPEN' 2* 0.4 3* 'X' 1* /
/
COMPDAT
'PROD' 197 1  1 1 'OPEN' 2* 0.4 3* 'X' 1* /
/
COMPDAT
'PROD' 198 1  1 1 'OPEN' 2* 0.4 3* 'X' 1* /
/
COMPDAT
'PROD' 199 1  1 1 'OPEN' 2* 0.4 3* 'X' 1* /
/
COMPDAT
'PROD' 232 1  1 1 'OPEN' 2* 0.4 3* 'X' 1* /
/
COMPDAT
'PROD' 233 1  1 1 'OPEN' 2* 0.4 3* 'X' 1* /
/
COMPDAT
'PROD' 234 1  1 1 'OPEN' 2* 0.4 3* 'X' 1* /
/
COMPDAT
'PROD' 235 1  1 1 'OPEN' 2* 0.4 3* 'X' 1* /
/
COMPDAT
'PROD' 236 1  1 1 'OPEN' 2* 0.4 3* 'X' 1* /
/
COMPDAT
'PROD' 237 1  1 1 'OPEN' 2* 0.4 3* 'X' 1* /
/
COMPDAT
'PROD' 238 1  1 1 'OPEN' 2* 0.4 3* 'X' 1* /
/
COMPDAT
'PROD' 239 1  1 1 'OPEN' 2* 0.4 3* 'X' 1* /
/
COMPDAT
'PROD' 240 1  1 1 'OPEN' 2* 0.4 3* 'X' 1* /
/
COMPDAT
'PROD' 241 1  1 1 'OPEN' 2* 0.4 3* 'X' 1* /
/
COMPDAT
'PROD' 242 1  1 1 'OPEN' 2* 0.4 3* 'X' 1* /
/
COMPDAT
'PROD' 275 1  1 1 'OPEN' 2* 0.4 3* 'X' 1* /
/
COMPDAT
'PROD' 276 1  1 1 'OPEN' 2* 0.4 3* 'X' 1* /
/
COMPDAT
'PROD' 277 1  1 1 'OPEN' 2* 0.4 3* 'X' 1* /
/
COMPDAT
'PROD' 278 1  1 1 'OPEN' 2* 0.4 3* 'X' 1* /
/
COMPDAT
'PROD' 279 1  1 1 'OPEN' 2* 0.4 3* 'X' 1* /
/
COMPDAT
'PROD' 280 1  1 1 'OPEN' 2* 0.4 3* 'X' 1* /
/
COMPDAT
'PROD' 281 1  1 1 'OPEN' 2* 0.4 3* 'X' 1* /
/
COMPDAT
'PROD' 282 1  1 1 'OPEN' 2* 0.4 3* 'X' 1* /
/
COMPDAT
'PROD' 283 1  1 1 'OPEN' 2* 0.4 3* 'X' 1* /
/
COMPDAT
'PROD' 284 1  1 1 'OPEN' 2* 0.4 3* 'X' 1* /
/
COMPDAT
'PROD' 285 1  1 1 'OPEN' 2* 0.4 3* 'X' 1* /
/
COMPDAT
'PROD' 318 1  1 1 'OPEN' 2* 0.4 3* 'X' 1* /
/
COMPDAT
'PROD' 319 1  1 1 'OPEN' 2* 0.4 3* 'X' 1* /
/
COMPDAT
'PROD' 320 1  1 1 'OPEN' 2* 0.4 3* 'X' 1* /
/
COMPDAT
'PROD' 321 1  1 1 'OPEN' 2* 0.4 3* 'X' 1* /
/
COMPDAT
'PROD' 322 1  1 1 'OPEN' 2* 0.4 3* 'X' 1* /
/
COMPDAT
'PROD' 323 1  1 1 'OPEN' 2* 0.4 3* 'X' 1* /
/
COMPDAT
'PROD' 324 1  1 1 'OPEN' 2* 0.4 3* 'X' 1* /
/
COMPDAT
'PROD' 325 1  1 1 'OPEN' 2* 0.4 3* 'X' 1* /
/
COMPDAT
'PROD' 326 1  1 1 'OPEN' 2* 0.4 3* 'X' 1* /
/
COMPDAT
'PROD' 327 1  1 1 'OPEN' 2* 0.4 3* 'X' 1* /
/
COMPDAT
'PROD' 328 1  1 1 'OPEN' 2* 0.4 3* 'X' 1* /
/
COMPDAT
'PROD' 361 1  1 1 'OPEN' 2* 0.4 3* 'X' 1* /
/
COMPDAT
'PROD' 362 1  1 1 'OPEN' 2* 0.4 3* 'X' 1* /
/
COMPDAT
'PROD' 363 1  1 1 'OPEN' 2* 0.4 3* 'X' 1* /
/
COMPDAT
'PROD' 364 1  1 1 'OPEN' 2* 0.4 3* 'X' 1* /
/
COMPDAT
'PROD' 365 1  1 1 'OPEN' 2* 0.4 3* 'X' 1* /
/
COMPDAT
'PROD' 366 1  1 1 'OPEN' 2* 0.4 3* 'X' 1* /
/
COMPDAT
'PROD' 367 1  1 1 'OPEN' 2* 0.4 3* 'X' 1* /
/
COMPDAT
'PROD' 368 1  1 1 'OPEN' 2* 0.4 3* 'X' 1* /
/
COMPDAT
'PROD' 369 1  1 1 'OPEN' 2* 0.4 3* 'X' 1* /
/
COMPDAT
'PROD' 370 1  1 1 'OPEN' 2* 0.4 3* 'X' 1* /
/
COMPDAT
'PROD' 371 1  1 1 'OPEN' 2* 0.4 3* 'X' 1* /
/
COMPDAT
'PROD' 404 1  1 1 'OPEN' 2* 0.4 3* 'X' 1* /
/
COMPDAT
'PROD' 405 1  1 1 'OPEN' 2* 0.4 3* 'X' 1* /
/
COMPDAT
'PROD' 406 1  1 1 'OPEN' 2* 0.4 3* 'X' 1* /
/
COMPDAT
'PROD' 407 1  1 1 'OPEN' 2* 0.4 3* 'X' 1* /
/
COMPDAT
'PROD' 408 1  1 1 'OPEN' 2* 0.4 3* 'X' 1* /
/
COMPDAT
'PROD' 409 1  1 1 'OPEN' 2* 0.4 3* 'X' 1* /
/
COMPDAT
'PROD' 410 1  1 1 'OPEN' 2* 0.4 3* 'X' 1* /
/
COMPDAT
'PROD' 411 1  1 1 'OPEN' 2* 0.4 3* 'X' 1* /
/
COMPDAT
'PROD' 412 1  1 1 'OPEN' 2* 0.4 3* 'X' 1* /
/
COMPDAT
'PROD' 413 1  1 1 'OPEN' 2* 0.4 3* 'X' 1* /
/
COMPDAT
'PROD' 414 1  1 1 'OPEN' 2* 0.4 3* 'X' 1* /
/
COMPDAT
'PROD' 447 1  1 1 'OPEN' 2* 0.4 3* 'X' 1* /
/
COMPDAT
'PROD' 448 1  1 1 'OPEN' 2* 0.4 3* 'X' 1* /
/
COMPDAT
'PROD' 449 1  1 1 'OPEN' 2* 0.4 3* 'X' 1* /
/
COMPDAT
'PROD' 450 1  1 1 'OPEN' 2* 0.4 3* 'X' 1* /
/
COMPDAT
'PROD' 451 1  1 1 'OPEN' 2* 0.4 3* 'X' 1* /
/
COMPDAT
'PROD' 452 1  1 1 'OPEN' 2* 0.4 3* 'X' 1* /
/
COMPDAT
'PROD' 453 1  1 1 'OPEN' 2* 0.4 3* 'X' 1* /
/
COMPDAT
'PROD' 454 1  1 1 'OPEN' 2* 0.4 3* 'X' 1* /
/
COMPDAT
'PROD' 455 1  1 1 'OPEN' 2* 0.4 3* 'X' 1* /
/
COMPDAT
'PROD' 456 1  1 1 'OPEN' 2* 0.4 3* 'X' 1* /
/
COMPDAT
'PROD' 457 1  1 1 'OPEN' 2* 0.4 3* 'X' 1* /
/
COMPDAT
'PROD' 490 1  1 1 'OPEN' 2* 0.4 3* 'X' 1* /
/
COMPDAT
'PROD' 491 1  1 1 'OPEN' 2* 0.4 3* 'X' 1* /
/
COMPDAT
'PROD' 492 1  1 1 'OPEN' 2* 0.4 3* 'X' 1* /
/
COMPDAT
'PROD' 493 1  1 1 'OPEN' 2* 0.4 3* 'X' 1* /
/
COMPDAT
'PROD' 494 1  1 1 'OPEN' 2* 0.4 3* 'X' 1* /
/
COMPDAT
'PROD' 495 1  1 1 'OPEN' 2* 0.4 3* 'X' 1* /
/
COMPDAT
'PROD' 496 1  1 1 'OPEN' 2* 0.4 3* 'X' 1* /
/
COMPDAT
'PROD' 497 1  1 1 'OPEN' 2* 0.4 3* 'X' 1* /
/
COMPDAT
'PROD' 498 1  1 1 'OPEN' 2* 0.4 3* 'X' 1* /
/
COMPDAT
'PROD' 499 1  1 1 'OPEN' 2* 0.4 3* 'X' 1* /
/
COMPDAT
'PROD' 500 1  1 1 'OPEN' 2* 0.4 3* 'X' 1* /
/
COMPDAT
'PROD' 533 1  1 1 'OPEN' 2* 0.4 3* 'X' 1* /
/
COMPDAT
'PROD' 534 1  1 1 'OPEN' 2* 0.4 3* 'X' 1* /
/
COMPDAT
'PROD' 535 1  1 1 'OPEN' 2* 0.4 3* 'X' 1* /
/
COMPDAT
'PROD' 536 1  1 1 'OPEN' 2* 0.4 3* 'X' 1* /
/
COMPDAT
'PROD' 537 1  1 1 'OPEN' 2* 0.4 3* 'X' 1* /
/
COMPDAT
'PROD' 538 1  1 1 'OPEN' 2* 0.4 3* 'X' 1* /
/
COMPDAT
'PROD' 539 1  1 1 'OPEN' 2* 0.4 3* 'X' 1* /
/
COMPDAT
'PROD' 540 1  1 1 'OPEN' 2* 0.4 3* 'X' 1* /
/
COMPDAT
'PROD' 541 1  1 1 'OPEN' 2* 0.4 3* 'X' 1* /
/
COMPDAT
'PROD' 542 1  1 1 'OPEN' 2* 0.4 3* 'X' 1* /
/
COMPDAT
'PROD' 543 1  1 1 'OPEN' 2* 0.4 3* 'X' 1* /
/
COMPDAT
'PROD' 576 1  1 1 'OPEN' 2* 0.4 3* 'X' 1* /
/
COMPDAT
'PROD' 577 1  1 1 'OPEN' 2* 0.4 3* 'X' 1* /
/
COMPDAT
'PROD' 578 1  1 1 'OPEN' 2* 0.4 3* 'X' 1* /
/
COMPDAT
'PROD' 579 1  1 1 'OPEN' 2* 0.4 3* 'X' 1* /
/
COMPDAT
'PROD' 580 1  1 1 'OPEN' 2* 0.4 3* 'X' 1* /
/
COMPDAT
'PROD' 581 1  1 1 'OPEN' 2* 0.4 3* 'X' 1* /
/
COMPDAT
'PROD' 582 1  1 1 'OPEN' 2* 0.4 3* 'X' 1* /
/
COMPDAT
'PROD' 583 1  1 1 'OPEN' 2* 0.4 3* 'X' 1* /
/
COMPDAT
'PROD' 584 1  1 1 'OPEN' 2* 0.4 3* 'X' 1* /
/
COMPDAT
'PROD' 585 1  1 1 'OPEN' 2* 0.4 3* 'X' 1* /
/
COMPDAT
'PROD' 586 1  1 1 'OPEN' 2* 0.4 3* 'X' 1* /
/
COMPDAT
'PROD' 619 1  1 1 'OPEN' 2* 0.4 3* 'X' 1* /
/
COMPDAT
'PROD' 620 1  1 1 'OPEN' 2* 0.4 3* 'X' 1* /
/
COMPDAT
'PROD' 621 1  1 1 'OPEN' 2* 0.4 3* 'X' 1* /
/
COMPDAT
'PROD' 622 1  1 1 'OPEN' 2* 0.4 3* 'X' 1* /
/
COMPDAT
'PROD' 623 1  1 1 'OPEN' 2* 0.4 3* 'X' 1* /
/
COMPDAT
'PROD' 624 1  1 1 'OPEN' 2* 0.4 3* 'X' 1* /
/
COMPDAT
'PROD' 625 1  1 1 'OPEN' 2* 0.4 3* 'X' 1* /
/
COMPDAT
'PROD' 626 1  1 1 'OPEN' 2* 0.4 3* 'X' 1* /
/
COMPDAT
'PROD' 627 1  1 1 'OPEN' 2* 0.4 3* 'X' 1* /
/
COMPDAT
'PROD' 628 1  1 1 'OPEN' 2* 0.4 3* 'X' 1* /
/
COMPDAT
'PROD' 629 1  1 1 'OPEN' 2* 0.4 3* 'X' 1* /
/
COMPDAT
'PROD' 662 1  1 1 'OPEN' 2* 0.4 3* 'X' 1* /
/
COMPDAT
'PROD' 663 1  1 1 'OPEN' 2* 0.4 3* 'X' 1* /
/
COMPDAT
'PROD' 664 1  1 1 'OPEN' 2* 0.4 3* 'X' 1* /
/
COMPDAT
'PROD' 665 1  1 1 'OPEN' 2* 0.4 3* 'X' 1* /
/
COMPDAT
'PROD' 666 1  1 1 'OPEN' 2* 0.4 3* 'X' 1* /
/
COMPDAT
'PROD' 667 1  1 1 'OPEN' 2* 0.4 3* 'X' 1* /
/
COMPDAT
'PROD' 668 1  1 1 'OPEN' 2* 0.4 3* 'X' 1* /
/
COMPDAT
'PROD' 669 1  1 1 'OPEN' 2* 0.4 3* 'X' 1* /
/
COMPDAT
'PROD' 670 1  1 1 'OPEN' 2* 0.4 3* 'X' 1* /
/
COMPDAT
'PROD' 671 1  1 1 'OPEN' 2* 0.4 3* 'X' 1* /
/
COMPDAT
'PROD' 672 1  1 1 'OPEN' 2* 0.4 3* 'X' 1* /
/
COMPDAT
'PROD' 705 1  1 1 'OPEN' 2* 0.4 3* 'X' 1* /
/
COMPDAT
'PROD' 706 1  1 1 'OPEN' 2* 0.4 3* 'X' 1* /
/
COMPDAT
'PROD' 707 1  1 1 'OPEN' 2* 0.4 3* 'X' 1* /
/
COMPDAT
'PROD' 708 1  1 1 'OPEN' 2* 0.4 3* 'X' 1* /
/
COMPDAT
'PROD' 709 1  1 1 'OPEN' 2* 0.4 3* 'X' 1* /
/
COMPDAT
'PROD' 710 1  1 1 'OPEN' 2* 0.4 3* 'X' 1* /
/
COMPDAT
'PROD' 711 1  1 1 'OPEN' 2* 0.4 3* 'X' 1* /
/
COMPDAT
'PROD' 712 1  1 1 'OPEN' 2* 0.4 3* 'X' 1* /
/
COMPDAT
'PROD' 713 1  1 1 'OPEN' 2* 0.4 3* 'X' 1* /
/
COMPDAT
'PROD' 714 1  1 1 'OPEN' 2* 0.4 3* 'X' 1* /
/
COMPDAT
'PROD' 715 1  1 1 'OPEN' 2* 0.4 3* 'X' 1* /
/
COMPDAT
'PROD' 748 1  1 1 'OPEN' 2* 0.4 3* 'X' 1* /
/
COMPDAT
'PROD' 749 1  1 1 'OPEN' 2* 0.4 3* 'X' 1* /
/
COMPDAT
'PROD' 750 1  1 1 'OPEN' 2* 0.4 3* 'X' 1* /
/
COMPDAT
'PROD' 751 1  1 1 'OPEN' 2* 0.4 3* 'X' 1* /
/
COMPDAT
'PROD' 752 1  1 1 'OPEN' 2* 0.4 3* 'X' 1* /
/
COMPDAT
'PROD' 753 1  1 1 'OPEN' 2* 0.4 3* 'X' 1* /
/
COMPDAT
'PROD' 754 1  1 1 'OPEN' 2* 0.4 3* 'X' 1* /
/
COMPDAT
'PROD' 755 1  1 1 'OPEN' 2* 0.4 3* 'X' 1* /
/
COMPDAT
'PROD' 756 1  1 1 'OPEN' 2* 0.4 3* 'X' 1* /
/
COMPDAT
'PROD' 757 1  1 1 'OPEN' 2* 0.4 3* 'X' 1* /
/
COMPDAT
'PROD' 758 1  1 1 'OPEN' 2* 0.4 3* 'X' 1* /
/
COMPDAT