--
-- -----------------------------------------------------------------------------
-- Office RUNSPEC (RUN) Data Section Version 2013.1 Jun 14 2013
-- -----------------------------------------------------------------------------
--
-- File: 11_RUN.inc
-- Created on: 13-Jan-2016 at: 15:59:44
--
-- *****************************************************************************
-- *                                  WARNING                                  *
-- *                THIS FILE HAS BEEN AUTOMATICALLY GENERATED.                *
-- *          ANY ATTEMPT TO EDIT MANUALLY MAY RESULT IN INVALID DATA.         *
-- *****************************************************************************
--
-- OFFICE-RUNSPEC-HEADER-DATA
RUNSPEC
TITLE
 TWO PHASE BLACK OIL
START
 1 'DEC' 2015 /
FIELD
FMTIN
FMTOUT
GAS
OIL
DISGAS
NSTACK
 25 /
MONITOR
RSSPEC
NOINSPEC
MSGFILE
 1 /
WSEGDIMS
 1 500 1 1 /
DIMENS
 1720 23 1 /
EQLDIMS
 1 100 100 1 20 /
REGDIMS
 1 1 0 10 /
TABDIMS
 1 1 20 20 1 20 20 1 /
WELLDIMS
 2 441 2 10 /
