--
-- -----------------------------------------------------------------------------
-- Office RUNSPEC (RUN) Data Section Version 2013.1 Jun 14 2013
-- -----------------------------------------------------------------------------
--
-- File: 11_RUN.inc
-- Created on: Feb-18-2016 at: 11:51:58
--
-- *****************************************************************************
-- *                                  WARNING                                  *
-- *                THIS FILE HAS BEEN AUTOMATICALLY GENERATED.                *
-- *          ANY ATTEMPT TO EDIT MANUALLY MAY RESULT IN INVALID DATA.         *
-- *****************************************************************************
--
-- OFFICE-RUNSPEC-HEADER-DATA
RUNSPEC
TITLE
 TWO PHASE BLACK OIL
DIMENS
 63	1   1  /
OIL
GAS
DISGAS
FIELD
FMTIN
FMTOUT
START
 1 DEC 2015  /
WELLDIMS
 1   200    1    10  /
WSEGDIMS
 1 500 1 1 /
CART
FULLIMP
TABDIMS
 1 1 /
NSTACK
 25 /
